## $Header$
MODULE_DEPENDENCIES=
# FIXME: needed to link objects compiled with Intel ifc
#MODULE_LINK=-L /opt/intel/ia32/lib/ -lF90 -lIEPCF90 -lintrins -L. -lAeroDyn
MODULE_LINK=-L. -lAeroDyn
